Version 4
SHEET 1 1112 680
WIRE 288 -96 224 -96
WIRE 224 -80 224 -96
WIRE 288 -64 288 -96
WIRE 224 64 224 0
WIRE 224 64 112 64
WIRE 336 64 224 64
WIRE 112 112 112 80
WIRE 336 112 336 80
WIRE 16 144 -96 144
WIRE 64 144 16 144
WIRE 448 144 384 144
WIRE 560 144 448 144
WIRE -96 176 -96 144
WIRE 112 176 112 160
WIRE 224 176 112 176
WIRE 336 176 336 160
WIRE 336 176 224 176
WIRE 560 176 560 144
WIRE 224 208 224 176
WIRE 352 208 224 208
WIRE 224 224 224 208
WIRE 352 240 352 208
WIRE 320 272 224 272
WIRE -96 288 -96 256
WIRE 320 288 320 272
WIRE 560 288 560 256
WIRE 16 304 16 144
WIRE 176 304 16 304
WIRE 352 336 352 304
WIRE 224 368 224 320
WIRE 224 448 224 416
WIRE 448 448 448 144
WIRE 448 448 272 448
WIRE 224 480 224 464
FLAG 224 480 0
FLAG 352 336 0
FLAG -96 288 0
FLAG 560 288 0
FLAG 288 -64 0
FLAG 320 288 0
SYMBOL voltage 224 16 R180
WINDOW 0 24 96 Left 2
WINDOW 3 24 16 Left 2
WINDOW 123 0 0 Left 0
WINDOW 39 0 0 Left 0
SYMATTR InstName Vdd
SYMATTR Value 1.8
SYMBOL pmos4 64 64 R0
SYMATTR InstName M1
SYMATTR Value2 l=100n w=320n
SYMBOL pmos4 384 64 M0
SYMATTR InstName M2
SYMATTR Value2 l=100n w=320n
SYMBOL nmos4 176 224 R0
WINDOW 0 -40 26 Left 2
WINDOW 3 -68 62 Left 2
SYMATTR InstName M3
SYMATTR Value2 l=100n w=120n
SYMBOL nmos4 272 368 M0
WINDOW 0 -40 40 Left 2
WINDOW 3 -68 69 Left 2
SYMATTR InstName M4
SYMATTR Value2 l=100n w=120n
SYMBOL cap 336 240 R0
SYMATTR InstName C1
SYMATTR Value 1fF
SYMBOL voltage -96 160 R0
SYMATTR InstName A
SYMBOL voltage 560 160 R0
SYMATTR InstName B
TEXT 664 -120 Left 2 !.inc 90nm_bulk.pm.txt
TEXT 664 -80 Left 2 !.meas DC res1 FIND 1.8*(I(Vdd)) AT 0
TEXT -130 504 Left 2 !.dc A 0 1.8 0.2
